Circuit: * Z:\home\ostoja\Elektronika\isolated_splitter\Draft2.asc

WARNING: Less than two connections to node -5V.  This node is used by V3.
WARNING: Less than two connections to node 5V.  This node is used by V4.
Early termination of direct N-R iteration.
Direct Newton iteration failed to find .op point.  (Use ".option noopiter" to skip.)
Starting Gmin stepping
Gmin = 10
vernier = 0.5
vernier = 0.25
vernier = 0.125
Gmin = 5.5165
vernier = 0.0625
vernier = 0.03125
vernier = 0.015625
vernier = 0.0078125
Gmin = 5.49501
vernier = 0.00390625
vernier = 0.00195313
vernier = 0.000976563
vernier = 0.000488281
Gmin = 5.50104
Gmin = 0
Gmin stepping failed

Starting source stepping with srcstepmethod=0
Source Step = 3.0303%
Source Step = 7.38636%
Source Step = 9.2803%
Source Step = 11.1742%
Source Step = 13.0682%
Source Step = 14.9621%
vernier = 0.09375
Source Step = 17.4242%
Source Step = 20.2652%
Source Step = 23.1061%
Source Step = 25.947%
Source Step = 28.7879%
vernier = 0.140625
Source Step = 32.339%
Source Step = 36.6004%
Source Step = 40.8617%
Source Step = 45.1231%
Source Step = 49.3845%
vernier = 0.210938
Source Step = 54.4981%
Source Step = 60.8902%
Source Step = 67.2822%
Source Step = 73.6742%
Source Step = 80.0663%
vernier = 0.316406
Source Step = 87.4171%
Source Step = 97.0052%
Source stepping succeeded in finding the operating point.


Date: Sun Nov 10 16:19:23 2024
Total elapsed time: 0.161 seconds.

tnom = 27
temp = 27
method = modified trap
totiter = 4590
traniter = 2114
tranpoints = 1058
accept = 1051
rejected = 7
matrix size = 58
fillins = 198
solver = Normal
Matrix Compiler1: 15.15 KB object code size  1.4/0.6/[0.6]
Matrix Compiler2: 8.22 KB object code size  0.6/0.4/[0.4]

