Circuit: * Z:\home\ostoja\Elektronika\isolated_splitter\single_grec.asc

Direct Newton iteration for .op point succeeded.
Heightened Def Con from 0.010887 to 0.010887

Date: Fri Nov 08 12:19:40 2024
Total elapsed time: 6.488 seconds.

tnom = 27
temp = 27
method = modified trap
totiter = 4026356
traniter = 4026347
tranpoints = 1120008
accept = 858096
rejected = 261913
matrix size = 33
fillins = 26
solver = Normal
Matrix Compiler1: 3.79 KB object code size  0.5/0.2/[0.2]
Matrix Compiler2: off  [0.2]/0.2/0.2

